Circuit: * C:\Users\bstanea\OneDrive - NI\Desktop\WF_Test_Utilities\ADC_R2R_ladder\_SIMULATION\circuit.asc

Direct Newton iteration failed to find .op point.  (Use ".option noopiter" to skip.)
Starting Gmin stepping
Gmin = 10
Gmin = 1.07374
Gmin = 0.115292
Gmin = 0.0123794
Gmin = 0.00132923
Gmin = 0.000142725
Gmin = 1.5325e-005
Gmin = 1.6455e-006
Gmin = 1.76685e-007
Gmin = 1.89714e-008
Gmin = 2.03704e-009
Gmin = 2.18725e-010
Gmin = 2.34854e-011
Gmin = 2.52173e-012
Gmin = 2.70769e-013
Gmin = 0
Gmin stepping succeeded in finding the operating point.


Date: Thu Sep 15 15:54:56 2022
Total elapsed time: 5.954 seconds.

tnom = 27
temp = 27
method = modified trap
totiter = 218283
traniter = 217623
tranpoints = 108301
accept = 90269
rejected = 18032
matrix size = 151
fillins = 186
solver = Normal
Thread vector: 11.6/6.9[3] 4.6/3.2[3] 2.2/2.0[2] 1.0/2.2[1]  2592/500
Matrix Compiler1: 19.77 KB object code size  4.4/2.2/[1.1]
Matrix Compiler2: 16.51 KB object code size  2.5/3.0/[1.1]

