Circuit: * OP482 SPICE Macro-model

Fatal Error: No analysis request found.
